*Heading
** Job name: beamHex1 Model name: Model-1
** Generated by: Abaqus/CAE 2018
*Preprint, echo=NO, model=NO, history=NO, contact=NO
**
** PARTS
**
*Part, name=Part-1
*Node
      1,         300.,          50.,          40.
      2,         300.,          45.,          40.
      3,         300.,          40.,          40.
      4,         300.,          35.,          40.
      5,         300.,          30.,          40.
      6,         300.,          25.,          40.
      7,         300.,          20.,          40.
      8,         300.,          15.,          40.
      9,         300.,          10.,          40.
     10,         300.,           5.,          40.
     11,         300.,           0.,          40.
     12,         300.,          50.,          35.
     13,         300.,          45.,          35.
     14,         300.,          40.,          35.
     15,         300.,          35.,          35.
     16,         300.,          30.,          35.
     17,         300.,          25.,          35.
     18,         300.,          20.,          35.
     19,         300.,          15.,          35.
     20,         300.,          10.,          35.
** ... 6019 like lines cut
*Element, type=C3D8
   1,  100,  101,  112,  111,    1,    2,   13,   12
   2,  101,  102,  113,  112,    2,    3,   14,   13
   3,  102,  103,  114,  113,    3,    4,   15,   14
   4,  103,  104,  115,  114,    4,    5,   16,   15
   5,  104,  105,  116,  115,    5,    6,   17,   16
   6,  105,  106,  117,  116,    6,    7,   18,   17
   7,  106,  107,  118,  117,    7,    8,   19,   18
   8,  107,  108,  119,  118,    8,    9,   20,   19
   9,  108,  109,  120,  119,    9,   10,   21,   20
  10,  109,  110,  121,  120,   10,   11,   22,   21
  11,  111,  112,  123,  122,   12,   13,   24,   23
  12,  112,  113,  124,  123,   13,   14,   25,   24
  13,  113,  114,  125,  124,   14,   15,   26,   25
  14,  114,  115,  126,  125,   15,   16,   27,   26
  15,  115,  116,  127,  126,   16,   17,   28,   27
  16,  116,  117,  128,  127,   17,   18,   29,   28
  17,  117,  118,  129,  128,   18,   19,   30,   29
  18,  118,  119,  130,  129,   19,   20,   31,   30
  19,  119,  120,  131,  130,   20,   21,   32,   31
  20,  120,  121,  132,  131,   21,   22,   33,   32
** ... 4780 like lines cut
*Nset, nset=Set-1, generate
    1,  6039,     1
*Elset, elset=Set-1, generate
    1,  4800,     1
** Section: Section-1
*Solid Section, elset=Set-1, material=Material-1
,
*End Part
**  
**
** ASSEMBLY
**
*Assembly, name=Assembly
**  
*Instance, name=Part-1-1, part=Part-1
*End Instance
**  
*Nset, nset=Set-2, instance=Part-1-1
 11, 99
*Nset, nset=Set-3, instance=Part-1-1
 11, 99
*Nset, nset=fix, instance=Part-1-1, generate
 5941,  6039,     1
*Elset, elset=fix, instance=Part-1-1, generate
 4721,  4800,     1
*Nset, nset=pull, instance=Part-1-1
 11, 99
*Nset, nset=_PickedSet8, internal, instance=Part-1-1
 11,
*Nset, nset=_PickedSet9, internal, instance=Part-1-1
 99,
*End Assembly
** 
** MATERIALS
** 
*Material, name=Material-1
*Elastic
113000., 0.23
** ----------------------------------------------------------------
** 
** STEP: Step-1
** 
*Step, name=Step-1, nlgeom=NO
*Static
1., 1., 1e-05, 1.
** 
** BOUNDARY CONDITIONS
** 
** Name: fix Type: Symmetry/Antisymmetry/Encastre
*Boundary
fix, ENCASTRE
** 
** LOADS
** 
** Name: Load-1   Type: Concentrated force
*Cload
_PickedSet8, 2, -8000.
** Name: Load-2   Type: Concentrated force
*Cload
_PickedSet9, 2, -8000.
** 
** OUTPUT REQUESTS
** 
*Restart, write, frequency=0
** 
** FIELD OUTPUT: F-Output-1
** 
*Output, field, variable=PRESELECT
** 
** HISTORY OUTPUT: H-Output-1
** 
*Output, history, variable=PRESELECT
*End Step
