*Heading
** Job name: beamHex1 Model name: Model-1
** Generated by: Abaqus/CAE 2018
*Preprint, echo=NO, model=NO, history=NO, contact=NO
**
** PARTS
**
*Part, name=Part-1
*Node
      1,         300.,          50.,          40.
      2,         300.,   33.3333321,          40.
      3,         300.,    16.666666,          40.
      4,         300.,           0.,          40.
      5,         300.,          50.,    26.666666
      6,         300.,   33.3333321,    26.666666
      7,         300.,    16.666666,    26.666666
      8,         300.,           0.,    26.666666
      9,         300.,          50.,    13.333333
     10,         300.,   33.3333321,    13.333333
     11,         300.,    16.666666,    13.333333
     12,         300.,           0.,    13.333333
     13,         300.,          50.,           0.
     14,         300.,   33.3333321,           0.
     15,         300.,    16.666666,           0.
     16,         300.,           0.,           0.
     17,         285.,          50.,          40.
     18,         285.,   33.3333321,          40.
     19,         285.,    16.666666,          40.
     20,         285.,           0.,          40.
** ... 316 like lines cut
*Element, type=C3D8
  1,  17,  18,  22,  21,   1,   2,   6,   5
  2,  18,  19,  23,  22,   2,   3,   7,   6
  3,  19,  20,  24,  23,   3,   4,   8,   7
  4,  21,  22,  26,  25,   5,   6,  10,   9
  5,  22,  23,  27,  26,   6,   7,  11,  10
  6,  23,  24,  28,  27,   7,   8,  12,  11
  7,  25,  26,  30,  29,   9,  10,  14,  13
  8,  26,  27,  31,  30,  10,  11,  15,  14
  9,  27,  28,  32,  31,  11,  12,  16,  15
 10,  33,  34,  38,  37,  17,  18,  22,  21
 11,  34,  35,  39,  38,  18,  19,  23,  22
 12,  35,  36,  40,  39,  19,  20,  24,  23
 13,  37,  38,  42,  41,  21,  22,  26,  25
 14,  38,  39,  43,  42,  22,  23,  27,  26
 15,  39,  40,  44,  43,  23,  24,  28,  27
 16,  41,  42,  46,  45,  25,  26,  30,  29
 17,  42,  43,  47,  46,  26,  27,  31,  30
 18,  43,  44,  48,  47,  27,  28,  32,  31
 19,  49,  50,  54,  53,  33,  34,  38,  37
 20,  50,  51,  55,  54,  34,  35,  39,  38
** ... 160 like lines cut
*Nset, nset=Set-1, generate
   1,  336,    1
*Elset, elset=Set-1, generate
   1,  180,    1
** Section: Section-1
*Solid Section, elset=Set-1, material=Material-1
,
*End Part
**  
**
** ASSEMBLY
**
*Assembly, name=Assembly
**  
*Instance, name=Part-1-1, part=Part-1
*End Instance
**  
*Nset, nset=Set-2, instance=Part-1-1
  4, 16
*Nset, nset=Set-3, instance=Part-1-1
  4, 16
*Nset, nset=fix, instance=Part-1-1, generate
 321,  336,    1
*Elset, elset=fix, instance=Part-1-1, generate
 172,  180,    1
*Nset, nset=pull, instance=Part-1-1
  4, 16
*End Assembly
** 
** MATERIALS
** 
*Material, name=Material-1
*Elastic
113000., 0.23
** ----------------------------------------------------------------
** 
** STEP: Step-1
** 
*Step, name=Step-1, nlgeom=NO
*Static
1., 1., 1e-05, 1.
** 
** BOUNDARY CONDITIONS
** 
** Name: fix Type: Symmetry/Antisymmetry/Encastre
*Boundary
fix, ENCASTRE
** 
** LOADS
** 
** Name: Load-1   Type: Concentrated force
*Cload
pull, 2, -8000.
** 
** OUTPUT REQUESTS
** 
*Restart, write, frequency=0
** 
** FIELD OUTPUT: F-Output-1
** 
*Output, field, variable=PRESELECT
** 
** HISTORY OUTPUT: H-Output-1
** 
*Output, history, variable=PRESELECT
*End Step
