*Heading
** Job name: beamHex2 Model name: Model-1
** Generated by: Abaqus/CAE 2018
*Preprint, echo=NO, model=NO, history=NO, contact=NO
**
** PARTS
**
*Part, name=Part-1
*Node
      1,         300.,          50.,          40.
      2,         300.,   33.3333321,          40.
      3,         300.,    16.666666,          40.
      4,         300.,           0.,          40.
      5,         300.,          50.,    26.666666
      6,         300.,   33.3333321,    26.666666
      7,         300.,    16.666666,    26.666666
      8,         300.,           0.,    26.666666
      9,         300.,          50.,    13.333333
     10,         300.,   33.3333321,    13.333333
     11,         300.,    16.666666,    13.333333
     12,         300.,           0.,    13.333333
     13,         300.,          50.,           0.
     14,         300.,   33.3333321,           0.
     15,         300.,    16.666666,           0.
     16,         300.,           0.,           0.
     17,         285.,          50.,          40.
     18,         285.,   33.3333321,          40.
     19,         285.,    16.666666,          40.
     20,         285.,           0.,          40.
** ... 1140 like lines cut
*Element, type=C3D20
  1,   17,   18,   22,   21,    1,    2,    6,    5,  340,  339,  338,  337,  341,  342,  343,
      344,  346,  345,  347,  348
  2,   18,   19,   23,   22,    2,    3,    7,    6,  351,  350,  349,  339,  352,  353,  354,
      342,  345,  355,  356,  347
  3,   19,   20,   24,   23,    3,    4,    8,    7,  359,  358,  357,  350,  360,  361,  362,
      353,  355,  363,  364,  356
  4,   21,   22,   26,   25,    5,    6,   10,    9,  338,  367,  366,  365,  343,  368,  369,
      370,  348,  347,  371,  372
  5,   22,   23,   27,   26,    6,    7,   11,   10,  349,  374,  373,  367,  354,  375,  376,
      368,  347,  356,  377,  371
  6,   23,   24,   28,   27,    7,    8,   12,   11,  357,  379,  378,  374,  362,  380,  381,
      375,  356,  364,  382,  377
  7,   25,   26,   30,   29,    9,   10,   14,   13,  366,  385,  384,  383,  369,  386,  387,
      388,  372,  371,  389,  390
  8,   26,   27,   31,   30,   10,   11,   15,   14,  373,  392,  391,  385,  376,  393,  394,
      386,  371,  377,  395,  389
  9,   27,   28,   32,   31,   11,   12,   16,   15,  378,  397,  396,  392,  381,  398,  399,
      393,  377,  382,  400,  395
 10,   33,   34,   38,   37,   17,   18,   22,   21,  404,  403,  402,  401,  340,  339,  338,
      337,  406,  405,  407,  408
** ... 340 like lines cut
*Nset, nset=Set-1, generate
    1,  1160,     1
*Elset, elset=Set-1, generate
   1,  180,    1
** Section: Section-1
*Solid Section, elset=Set-1, material=Material-1
,
*End Part
**  
**
** ASSEMBLY
**
*Assembly, name=Assembly
**  
*Instance, name=Part-1-1, part=Part-1
*End Instance
**  
*Nset, nset=Set-2, instance=Part-1-1
  4, 16
*Nset, nset=Set-3, instance=Part-1-1
  4, 16
*Nset, nset=fix, instance=Part-1-1
  321,  322,  323,  324,  325,  326,  327,  328,  329,  330,  331,  332,  333,  334,  335,  336
 1121, 1122, 1123, 1124, 1129, 1130, 1131, 1134, 1135, 1136, 1139, 1140, 1141, 1144, 1145, 1147
 1148, 1150, 1151, 1152, 1155, 1156, 1158, 1159
*Elset, elset=fix, instance=Part-1-1, generate
 172,  180,    1
*Nset, nset=pull, instance=Part-1-1
  4, 16
*End Assembly
** 
** MATERIALS
** 
*Material, name=Material-1
*Elastic
113000., 0.23
** ----------------------------------------------------------------
** 
** STEP: Step-1
** 
*Step, name=Step-1, nlgeom=NO
*Static
1., 1., 1e-05, 1.
** 
** BOUNDARY CONDITIONS
** 
** Name: fix Type: Symmetry/Antisymmetry/Encastre
*Boundary
fix, ENCASTRE
** 
** LOADS
** 
** Name: Load-1   Type: Concentrated force
*Cload
pull, 2, -8000.
** 
** OUTPUT REQUESTS
** 
*Restart, write, frequency=0
** 
** FIELD OUTPUT: F-Output-1
** 
*Output, field, variable=PRESELECT
** 
** HISTORY OUTPUT: H-Output-1
** 
*Output, history, variable=PRESELECT
*End Step
