*Heading
** Job name: beamTet2 Model name: Model-1
** Generated by: Abaqus/CAE 2018
*Preprint, echo=NO, model=NO, history=NO, contact=NO
**
** PARTS
**
*Part, name=Part-1
*Node
      1,         300.,          50.,          40.
      2,         300.,           0.,          40.
      3,         300.,           0.,           0.
      4,         300.,          50.,           0.
      5,           0.,           0.,          40.
      6,           0.,           0.,           0.
      7,           0.,          50.,           0.
      8,           0.,          50.,          40.
      9,         300.,   33.3333321,          40.
     10,         300.,    16.666666,          40.
     11,         300.,           0.,    26.666666
     12,         300.,           0.,    13.333333
     13,         300.,    16.666666,           0.
     14,         300.,   33.3333321,           0.
     15,         300.,          50.,    13.333333
     16,         300.,          50.,    26.666666
     17,         285.,           0.,          40.
     18,         270.,           0.,          40.
     19,         255.,           0.,          40.
     20,         240.,           0.,          40.
** ... 2530 like lines cut
*Element, type=C3D10
   1,  261,  262,  185,  204,  407,  406,  405,  409,  408,  410
   2,  261,  263,  264,  265,  413,  412,  411,  415,  414,  416
   3,  261,  264,  186,  265,  411,  418,  417,  415,  416,  419
   4,  261,  185,  262,  266,  405,  406,  407,  421,  420,  422
   5,  267,  268,  269,  270,  425,  424,  423,  427,  426,  428
   6,  267,  271,  272,  208,  431,  430,  429,  433,  432,  434
   7,  267,  273,  189,  272,  437,  436,  435,  429,  438,  439
   8,  267,  209,  271,  208,  441,  440,  431,  433,  442,  432
   9,  274,  275,  215,  276,  445,  444,  443,  447,  446,  448
  10,  274,  277,  275,  276,  450,  449,  445,  447,  451,  446
  11,  278,  279,  280,  281,  454,  453,  452,  456,  455,  457
  12,  278,  282,  283,  284,  460,  459,  458,  462,  461,  463
  13,  278,  269,  285,  191,  466,  465,  464,  468,  467,  469
  14,  278,  192,  282,  211,  471,  470,  460,  473,  472,  474
  15,  278,  211,  282,  284,  473,  474,  460,  462,  475,  461
  16,  278,  191,  285,  192,  468,  469,  464,  471,  476,  477
  17,  286,  287,  288,  289,  480,  479,  478,  482,  481,  483
  18,  286,  287,  290,  291,  480,  485,  484,  487,  486,  488
  19,  286,  182,  291,  290,  490,  489,  487,  484,  491,  488
  20,  286,  289,  292,  293,  482,  493,  492,  495,  494,  496
** ... 1465 like lines cut
*Nset, nset=Set-1, generate
    1,  2550,     1
*Elset, elset=Set-1, generate
    1,  1485,     1
** Section: Section-1
*Solid Section, elset=Set-1, material=Material-1
,
*End Part
**  
**
** ASSEMBLY
**
*Assembly, name=Assembly
**  
*Instance, name=Part-1-1, part=Part-1
*End Instance
**  
*Nset, nset=Set-2, instance=Part-1-1
 2, 3
*Nset, nset=Set-3, instance=Part-1-1
 2, 3
*Nset, nset=fix, instance=Part-1-1
    5,    6,    7,    8,   36,   37,   57,   58,   97,   98,   99,  100,  257,  258,  259,  260
  507,  759,  780,  781,  827, 1011, 1012, 1179, 1181, 1183, 1271, 1618, 1620, 1621, 1751, 1967
 1968, 1972, 2006, 2092, 2093, 2356, 2357, 2361, 2367, 2368, 2369, 2449, 2475, 2478, 2482, 2486
 2544,
*Elset, elset=fix, instance=Part-1-1
   85,  207,  368,  433,  621,  909,  915,  921, 1080, 1097, 1172, 1174, 1191, 1203, 1206, 1250
 1402, 1423
*Nset, nset=pull, instance=Part-1-1
 2, 3
*End Assembly
** 
** MATERIALS
** 
*Material, name=Material-1
*Elastic
113000., 0.23
** ----------------------------------------------------------------
** 
** STEP: Step-1
** 
*Step, name=Step-1, nlgeom=NO
*Static
1., 1., 1e-05, 1.
** 
** BOUNDARY CONDITIONS
** 
** Name: fix Type: Symmetry/Antisymmetry/Encastre
*Boundary
fix, ENCASTRE
** 
** LOADS
** 
** Name: Load-1   Type: Concentrated force
*Cload
pull, 2, -8000.
** 
** OUTPUT REQUESTS
** 
*Restart, write, frequency=0
** 
** FIELD OUTPUT: F-Output-1
** 
*Output, field, variable=PRESELECT
** 
** HISTORY OUTPUT: H-Output-1
** 
*Output, history, variable=PRESELECT
*End Step
