*Heading
** Job name: beamTet1 Model name: Model-1
** Generated by: Abaqus/CAE 2018
*Preprint, echo=NO, model=NO, history=NO, contact=NO
**
** PARTS
**
*Part, name=Part-1
*Node
      1,         300.,          50.,          40.
      2,         300.,           0.,          40.
      3,         300.,           0.,           0.
      4,         300.,          50.,           0.
      5,           0.,           0.,          40.
      6,           0.,           0.,           0.
      7,           0.,          50.,           0.
      8,           0.,          50.,          40.
      9,         300.,   33.3333321,          40.
     10,         300.,    16.666666,          40.
     11,         300.,           0.,    26.666666
     12,         300.,           0.,    13.333333
     13,         300.,    16.666666,           0.
     14,         300.,   33.3333321,           0.
     15,         300.,          50.,    13.333333
     16,         300.,          50.,    26.666666
     17,         285.,           0.,          40.
     18,         270.,           0.,          40.
     19,         255.,           0.,          40.
     20,         240.,           0.,          40.
** ... 384 like lines cut
*Element, type=C3D4
   1, 261, 262, 185, 204
   2, 261, 263, 264, 265
   3, 261, 264, 186, 265
   4, 261, 185, 262, 266
   5, 267, 268, 269, 270
   6, 267, 271, 272, 208
   7, 267, 273, 189, 272
   8, 267, 209, 271, 208
   9, 274, 275, 215, 276
  10, 274, 277, 275, 276
  11, 278, 279, 280, 281
  12, 278, 282, 283, 284
  13, 278, 269, 285, 191
  14, 278, 192, 282, 211
  15, 278, 211, 282, 284
  16, 278, 191, 285, 192
  17, 286, 287, 288, 289
  18, 286, 287, 290, 291
  19, 286, 182, 291, 290
  20, 286, 289, 292, 293
** ... 1465 like lines cut
*Nset, nset=Set-1, generate
   1,  404,    1
*Elset, elset=Set-1, generate
    1,  1485,     1
** Section: Section-1
*Solid Section, elset=Set-1, material=Material-1
,
*End Part
**  
**
** ASSEMBLY
**
*Assembly, name=Assembly
**  
*Instance, name=Part-1-1, part=Part-1
*End Instance
**  
*Nset, nset=Set-2, instance=Part-1-1
 2, 3
*Nset, nset=Set-3, instance=Part-1-1
 2, 3
*Nset, nset=fix, instance=Part-1-1
   5,   6,   7,   8,  36,  37,  57,  58,  97,  98,  99, 100, 257, 258, 259, 260
*Elset, elset=fix, instance=Part-1-1
   85,  207,  368,  433,  621,  909,  915,  921, 1080, 1097, 1172, 1174, 1191, 1203, 1206, 1250
 1402, 1423
*Nset, nset=pull, instance=Part-1-1
 2, 3
*End Assembly
** 
** MATERIALS
** 
*Material, name=Material-1
*Elastic
113000., 0.23
** ----------------------------------------------------------------
** 
** STEP: Step-1
** 
*Step, name=Step-1, nlgeom=NO
*Static
1., 1., 1e-05, 1.
** 
** BOUNDARY CONDITIONS
** 
** Name: fix Type: Symmetry/Antisymmetry/Encastre
*Boundary
fix, ENCASTRE
** 
** LOADS
** 
** Name: Load-1   Type: Concentrated force
*Cload
pull, 2, -8000.
** 
** OUTPUT REQUESTS
** 
*Restart, write, frequency=0
** 
** FIELD OUTPUT: F-Output-1
** 
*Output, field, variable=PRESELECT
** 
** HISTORY OUTPUT: H-Output-1
** 
*Output, history, variable=PRESELECT
*End Step
